[General]
cmdenv-express-mode = true
cmdenv-autoflush = true
cmdenv-status-frequency = 1s
**.cmdenv-log-level = info

ned-path = .
image-path = ../../images

# network = RSUExampleScenario
network = Circles_Scenario

##########################################################
#            Simulation parameters                       #
##########################################################
# debug-on-errors = true
print-undisposed = false

sim-time-limit = 300s

**.scalar-recording = true
**.vector-recording = true
record-eventlog = true

**.debug = false
**.coreDebug = true

# it is for all algorithms
repeat = 1
*.node[*].appl.cur_ucb = ${n = 0..3 step 1}
#*.node[*].appl.cur_ucb = 2				# 0 ucb, 1 vucb, 2 avucb, 3 rdm(random)

*.playgroundSizeX = 10000m
*.playgroundSizeY = 3000m
*.playgroundSizeZ = 50m


##########################################################
# Annotation parameters                                  #
##########################################################
*.annotations.draw = true

##########################################################
# Obstacle parameters                                    #
##########################################################
*.obstacles.debug = false
*.obstacles.obstacles = xmldoc("config.xml", "//AnalogueModel[@type='SimpleObstacleShadowing']/obstacles")

##########################################################
#            TraCIScenarioManager parameters             #
##########################################################
*.manager.updateInterval = 1s
*.manager.host = "localhost"
*.manager.port = 9999
*.manager.autoShutdown = true
# *.manager.launchConfig = xmldoc("erlangen.launchd.xml")
# *.manager.launchConfig = xmldoc("circles.launchd.xml")
# *.manager.launchConfig = xmldoc("two_road.launchd.xml")
 *.manager.launchConfig = xmldoc("G6_badaling.launchd.xml")

##########################################################
#                       RSU SETTINGS                     #
#                                                        #
#                                                        #
##########################################################
*.rsu[0].mobility.x = 2000
*.rsu[0].mobility.y = 2000
*.rsu[0].mobility.z = 3

*.rsu[*].applType = "TraCIDemoRSU11p"
*.rsu[*].appl.headerLength = 80 bit
*.rsu[*].appl.sendBeacons = false
*.rsu[*].appl.dataOnSch = false
*.rsu[*].appl.beaconInterval = 1s
*.rsu[*].appl.beaconUserPriority = 7
*.rsu[*].appl.dataUserPriority = 5

##########################################################
#            11p specific parameters                     #
#                                                        #
#                    NIC-Settings                        #
##########################################################
*.connectionManager.sendDirect = true
*.connectionManager.maxInterfDist = 2600m
*.connectionManager.drawMaxIntfDist = false

*.**.nic.mac1609_4.useServiceChannel = false

*.**.nic.mac1609_4.txPower = 20mW
*.**.nic.mac1609_4.bitrate = 6Mbps
*.**.nic.phy80211p.sensitivity = -89dBm

*.**.nic.phy80211p.useThermalNoise = true
*.**.nic.phy80211p.thermalNoise = -110dBm

*.**.nic.phy80211p.decider = xmldoc("config.xml")
*.**.nic.phy80211p.analogueModels = xmldoc("config.xml")
*.**.nic.phy80211p.usePropagationDelay = true

*.**.nic.phy80211p.antenna = xmldoc("antenna.xml", "/root/Antenna[@id='monopole']")

##########################################################
#                    WaveAppLayer                        #
##########################################################
# *.node[*].applType = "TraCIDemo11p"
# *.node[*].applType = "MyVeinsApp"
#*.node[*].applType = "AppOfHandler"
*.node[*].applType = "TaskOffload"
*.node[*].appl.headerLength = 80 bit
*.node[*].appl.sendBeacons = false
*.node[*].appl.dataOnSch = false
*.node[*].appl.beaconInterval = 1s

##########################################################
#                      Mobility                          #
##########################################################
*.node[*].veinsmobilityType.debug = true
*.node[*].veinsmobility.x = 0
*.node[*].veinsmobility.y = 0
*.node[*].veinsmobility.z = 1.895
*.node[*0].veinsmobility.accidentCount = 1
*.node[*0].veinsmobility.accidentStart = 75s
*.node[*0].veinsmobility.accidentDuration = 50s

[Config WithoutChannelSwitching]

[Config WithChannelSwitching]
*.**.nic.mac1609_4.useServiceChannel = true
*.node[*].appl.dataOnSch = true
*.rsu[*].appl.dataOnSch = true

