<configuration>
    <input>
       <net-file value="circles.net.xml" />
       <route-files value="circles.rou.xml" />
       <additional-files value="circles.add.xml" />
       <gui-settings-file value="circles.view.xml" />
    </input>
</configuration>
