<?xml version="1.0" encoding="UTF-8"?>

<!-- generated on 2017年10月15日 星期日 16时14分18秒 by Netedit Version 0.30.0
<?xml version="1.0" encoding="UTF-8"?>

<configuration xmlns:xsi="http://www.w3.org/2001/XMLSchema-instance" xsi:noNamespaceSchemaLocation="http://sumo.dlr.de/xsd/netconvertConfiguration.xsd">

    <input>
        <sumo-net-file value="circles.net.xml"/>
    </input>

    <output>
        <output-file value="circles.net.xml"/>
    </output>

    <processing>
        <no-turnarounds value="true"/>
        <offset.disable-normalization value="true"/>
        <lefthand value="false"/>
        <junctions.corner-detail value="0"/>
        <rectangular-lane-cut value="false"/>
    </processing>

</configuration>
-->

<net version="0.27" xmlns:xsi="http://www.w3.org/2001/XMLSchema-instance" xsi:noNamespaceSchemaLocation="http://sumo.dlr.de/xsd/net_file.xsd">

    <location netOffset="0.00,0.00" convBoundary="0.00,0.00,50.00,50.00" origBoundary="-10000000000.00,-10000000000.00,10000000000.00,10000000000.00" projParameter="!"/>

    <edge id=":gneJ10_0" function="internal">
        <lane id=":gneJ10_0_0" index="0" speed="13.89" length="2.58" shape="-1.65,-0.05 -1.55,-0.75 -1.25,-1.25 -0.75,-1.55 -0.05,-1.65"/>
    </edge>
    <edge id=":gneJ11_0" function="internal">
        <lane id=":gneJ11_0_0" index="0" speed="13.89" length="2.58" shape="50.05,-1.65 50.75,-1.55 51.25,-1.25 51.55,-0.75 51.65,-0.05"/>
    </edge>
    <edge id=":gneJ12_0" function="internal">
        <lane id=":gneJ12_0_0" index="0" speed="13.89" length="2.58" shape="51.65,50.05 51.55,50.75 51.25,51.25 50.75,51.55 50.05,51.65"/>
    </edge>
    <edge id=":gneJ13_0" function="internal">
        <lane id=":gneJ13_0_0" index="0" speed="13.89" length="2.58" shape="-0.05,51.65 -0.75,51.55 -1.25,51.25 -1.55,50.75 -1.65,50.05"/>
    </edge>

    <edge id="e1" from="gneJ10" to="gneJ11" priority="1">
        <lane id="e1_0" index="0" speed="13.89" length="50.10" shape="-0.05,-1.65 50.05,-1.65"/>
    </edge>
    <edge id="e2" from="gneJ12" to="gneJ13" priority="1">
        <lane id="e2_0" index="0" speed="13.89" length="50.10" shape="50.05,51.65 -0.05,51.65"/>
    </edge>
    <edge id="gneE12" from="gneJ13" to="gneJ10" priority="1">
        <lane id="gneE12_0" index="0" speed="13.89" length="50.10" shape="-1.65,50.05 -1.65,-0.05"/>
    </edge>
    <edge id="gneE9" from="gneJ11" to="gneJ12" priority="1">
        <lane id="gneE9_0" index="0" speed="13.89" length="50.10" shape="51.65,-0.05 51.65,50.05"/>
    </edge>

    <junction id="gneJ10" type="priority" x="0.00" y="0.00" incLanes="gneE12_0" intLanes=":gneJ10_0_0" shape="-3.25,-0.05 -0.05,-0.05 -0.05,-3.25">
        <request index="0" response="0" foes="0" cont="0"/>
    </junction>
    <junction id="gneJ11" type="priority" x="50.00" y="0.00" incLanes="e1_0" intLanes=":gneJ11_0_0" shape="50.05,-0.05 53.25,-0.05 50.05,-3.25">
        <request index="0" response="0" foes="0" cont="0"/>
    </junction>
    <junction id="gneJ12" type="priority" x="50.00" y="50.00" incLanes="gneE9_0" intLanes=":gneJ12_0_0" shape="53.25,50.05 50.05,50.05 50.05,53.25">
        <request index="0" response="0" foes="0" cont="0"/>
    </junction>
    <junction id="gneJ13" type="priority" x="0.00" y="50.00" incLanes="e2_0" intLanes=":gneJ13_0_0" shape="-0.05,53.25 -0.05,50.05 -3.25,50.05">
        <request index="0" response="0" foes="0" cont="0"/>
    </junction>

    <connection from="e1" to="gneE9" fromLane="0" toLane="0" via=":gneJ11_0_0" dir="l" state="M"/>
    <connection from="e2" to="gneE12" fromLane="0" toLane="0" via=":gneJ13_0_0" dir="l" state="M"/>
    <connection from="gneE12" to="e1" fromLane="0" toLane="0" via=":gneJ10_0_0" dir="l" state="M"/>
    <connection from="gneE9" to="e2" fromLane="0" toLane="0" via=":gneJ12_0_0" dir="l" state="M"/>

    <connection from=":gneJ10_0" to="e1" fromLane="0" toLane="0" dir="s" state="M"/>
    <connection from=":gneJ11_0" to="gneE9" fromLane="0" toLane="0" dir="s" state="M"/>
    <connection from=":gneJ12_0" to="e2" fromLane="0" toLane="0" dir="s" state="M"/>
    <connection from=":gneJ13_0" to="gneE12" fromLane="0" toLane="0" dir="s" state="M"/>

</net>
